src/tests/data/grids/DGS/SinglePhasePowerNeutralStar.dgs
********************************************************************************
*
* DIgSILENT (R) DGS Export V1.8.4
* Copyright (C) DIgSILENT GmbH 2026. All rights reserved.
*
* DIgSILENT (C) PowerFactory V24.0.10.0
*
* Date:     08/05/2026 18:42
* Project:  IEEE13_LoadValidation (Study Case: Study Case)
*
********************************************************************************


$$General;FID(a:40);Descr(a:40);Val(a:255)
  1;Version;7.0


$$ElmFeeder;FID(a:40);OP(a:1);loc_name(a:80);fold_id(p);obj_id(p);iorient(i);i_scale(i);Sset(r);icolor(i);outserv(i)
  2;C;RG60_LOHL650-632;;23;0;0;0;-15572290;0


$$ElmLne;FID(a:40);OP(a:1);loc_name(a:80);fold_id(p);typ_id(p);dline(r);fline(r);GPScoords:MATRIX(a);nlnum(i);inAir(i)
  3;C;LOHL650-632;5;33;0.6096;1;;1;0


$$ElmLod;FID(a:40);OP(a:1);loc_name(a:80);fold_id(p);typ_id(p);mode_inp(a:6);slini(r);plini(r);qlini(r);coslini(r);pf_recap(i);scale0(r);i_scale(i);outserv(i);classif(a:40);i_sym(i);plinir(r);plinis(r);plinit(r);qlinir(r);qlinis(r);qlinit(r);phtech(a)
  4;C;General Load;5;32;DEF;0.482830;0.45;0.175;0.932004;0;1;1;0;;1;0.2;0.15;0.1;0.1;0.05;0.025;1PH PH-N


$$ElmNet;FID(a:40);OP(a:1);loc_name(a:80);fold_id(p);frnom(r);pDiagram(p)
  5;C;Grid;;60;20


$$ElmTerm;FID(a:40);OP(a:1);loc_name(a:80);fold_id(p);typ_id(p);systype(i);iUsage(i);uknom(r);unknom(r);iminus(i);outserv(i);GPSlat(r);GPSlon(r);vtarget(r)
  6;C;Load;5;29;0;0;4.16;2.401777;0;0;0;0;1
  7;C;Source;5;29;0;0;4.16;2.401777;0;0;0;0;1


$$ElmXnet;FID(a:40);OP(a:1);loc_name(a:80);fold_id(p);snss(r);rntxn(r);z2tz1(r);snssmin(r);rntxnmin(r);z2tz1min(r);chr_name(a:40);bustp(a:2);pgini(r);qgini(r);phiini(r);usetp(r);outserv(i);Kpf(r);K(r);cmax(r);xd(r);xq(r)
  8;C;External Grid;5;10000;0.1;1;8000;0.1;1;;PV;0;0;0;1;0;0;0;1.1;0.2;0.2


$$IntFolder;FID(a:40);OP(a:1);loc_name(a:80);fold_id(p)
  9;C;Layers;20
  10;C;Settings;20


$$IntGrf;FID(a:40);OP(a:1);loc_name(a:80);fold_id(p);iCol(i);iVis(i);iLevel(i);rCenterX(r);rCenterY(r);sSymNam(a:80);pDataObj(p);iRot(i);rSizeX(r);rSizeY(r)
  11;C;Graphical Net Object3;20;-16777216;1;1;260.3125;183.75;TermStrip;7;0;1.833333;1
  12;C;Graphical Net Object30;20;-16777216;1;1;262.5;166.25;d_lin;3;0;1;1
  13;C;Graphical Net Object5;20;-16777216;1;1;262.5;201.25;d_net;8;180;1;1
  14;C;Graphical Net Object6(1);20;-16777216;1;1;262.5;131.25;d_load;4;0;1;1
  15;C;Graphical Net Object6;20;-16777216;1;1;260.3125;148.75;TermStrip;6;0;1.833333;1


$$IntGrfcon;FID(a:40);OP(a:1);loc_name(a:80);fold_id(p);rX:SIZEROW(i);rX:0(r);rX:1(r);rY:SIZEROW(i);rY:0(r);rY:1(r);iDatConNr(i)
  16;C;GCO_1;12;2;262.5;262.5;2;166.25;183.75;0
  17;C;GCO_2;12;2;262.5;262.5;2;166.25;148.75;1
  18;C;GCO_1;13;2;262.5;262.5;2;196.875;183.75;0
  19;C;GCO_1;14;2;262.5;262.5;2;135.625;148.75;0


$$IntGrfnet;FID(a:40);OP(a:1);loc_name(a:80);fold_id(p);snap_on(i);ortho_on(i);pDataFolder(p)
  20;C;Grid;;1;1;5


$$StaCubic;FID(a:40);OP(a:1);loc_name(a:80);fold_id(p);obj_bus(i);obj_id(p);it2p1(i);it2p2(i);it2p3(i);cPhInfo(a)
  21;C;Cub_4;6;1;3;0;1;2;abcN
  22;C;Cub_5;6;0;4;0;1;2;aN
  23;C;Cub_4;7;0;3;0;1;2;abcN
  24;C;Cub_5;7;0;8;0;1;2;abcN


$$StaSwitch;FID(a:40);OP(a:1);loc_name(a:80);fold_id(p);on_off(i);typ_id(p);aUsage(a)
  25;C;Switch;21;1;;cbk
  26;C;Switch;22;1;;cbk
  27;C;Switch;23;1;;cbk
  28;C;Switch;24;1;;cbk


$$TypBar;FID(a:40);OP(a:1);loc_name(a:80);fold_id(p);uknom(r);Ithlim(r);Tkr(r);Iplim(r)
  29;C;Busbar4.16kV;;4.16;0;1;0


$$TypCon;FID(a:40);OP(a:1);loc_name(a:80);fold_id(p);sline(r);ncsub(i);dsubc(r);rpha(r);diaco(r);erpha(r);diatub(r);iskin(i);tmax(r);uline(r);iopt_inp(a:6);alpha(r);rpha_tmax(r);mlei(a:20);iModel(i)
  30;C;556.5 ACSR;;0.73;1;0.1;0.115512;23.5458;9.54024;16;0;80;4.16;tmx;0;0.115512;Al;0
  31;C;n4 ACSR;;0.34;1;0.1;0.367851;14.3002;2.481072;16;0;80;4.16;tmx;0;0.367852;Al;0


$$TypLod;FID(a:40);OP(a:1);loc_name(a:80);fold_id(p);systp(i);phtech(i);aP(r);bP(r);kpu0(r);kpu1(r);kpu(r);aQ(r);bQ(r);kqu0(r);kqu1(r);kqu(r)
  32;C;LodYEcPQ;;0;8;1;0;0;1;2;1;0;0;1;2


$$TypTow;FID(a:40);OP(a:1);loc_name(a:80);fold_id(p);frnom(r);nlear(i);nlcir(i);gearth(r);i_mode(i);pcond_e:SIZEROW(i);nphas:SIZEROW(i);nphas:0(r);nphas:1(r);ktrto:SIZEROW(i);ktrto:0(r);ktrto:1(r);pcond_c:SIZEROW(i);pcond_c:0(p);pcond_c:1(p);xy_e:SIZEROW(i);xy_e:SIZECOL(i);xy_c:SIZEROW(i);xy_c:SIZECOL(i);xy_c:0:0(r);xy_c:0:1(r);xy_c:0:2(r);xy_c:0:3(r);xy_c:0:4(r);xy_c:0:5(r);xy_c:1:0(r);xy_c:1:1(r);xy_c:1:2(r);xy_c:1:3(r);xy_c:1:4(r);xy_c:1:5(r);R_c0:SIZEROW(i);R_c0:SIZECOL(i);R_c0:0:0(r);R_c0:0:1(r);R_c0:1:0(r);R_c0:1:1(r);X_c0:SIZEROW(i);X_c0:SIZECOL(i);X_c0:0:0(r);X_c0:0:1(r);X_c0:1:0(r);X_c0:1:1(r);R_c1:SIZEROW(i);R_c1:SIZECOL(i);R_c1:0:0(r);R_c1:0:1(r);R_c1:1:0(r);R_c1:1:1(r);X_c1:SIZEROW(i);X_c1:SIZECOL(i);X_c1:0:0(r);X_c1:0:1(r);X_c1:1:0(r);X_c1:1:1(r);B_c0:SIZEROW(i);B_c0:SIZECOL(i);B_c0:0:0(r);B_c0:0:1(r);B_c0:1:0(r);B_c0:1:1(r);B_c1:SIZEROW(i);B_c1:SIZECOL(i);B_c1:0:0(r);B_c1:0:1(r);B_c1:1:0(r);B_c1:1:1(r);G_c0:SIZEROW(i);G_c0:SIZECOL(i);G_c0:0:0(r);G_c0:0:1(r);G_c0:1:0(r);G_c0:1:1(r);G_c1:SIZEROW(i);G_c1:SIZECOL(i);G_c1:0:0(r);G_c1:0:1(r);G_c1:1:0(r);G_c1:1:1(r)
  33;C;LineConfig601;;60;0;2;100;0;0;2;3;1;2;0;0;2;30;31;0;2;2;6;-0.3048;-1.0668;1.0668;8.5344;8.5344;8.5344;0.1523999951232;0;0;7.31519976591361;0;0;2;2;0.28938587264300;0;0;0;2;2;1.84028590543697;0;0;0;2;2;0.11551323258965;0;0;0.42598366211991;2;2;0.37092624906715;0;0;0.96207525615837;2;2;2.05281997027578;0;0;0;2;2;4.53810766818396;0;0;3.34042442918459;2;2;0;0;0;0;2;2;-2.77555756156289e-17;0;0;0
